PDEW2015 12 16 10 30 58.00 25.223 122.130 218 0.0 4.28 RYUKYU SUB
event name:     201512161030
time shift:     0.0
half duration:  0.0
latitude:       25.223
longitude:      122.130
depth:          218
Mrr:       0
Mtt:       0
Mpp:       1
Mrt:       0
Mrp:       0
Mtp:       0
