PDEW2015 12 06 05 06 17.00 24.7550 122.3930 108 0.0 4.32 RYUKYU SUB
event name:     201512060506
time shift:     0.0
half duration:  0.0
latitude:       24.7550
longitude:      122.3930
depth:          108
Mrr:        0.64
Mtt:        -0.11
Mpp:        -0.53
Mrt:        -0.32
Mrp:        -0.69
Mtp:        -0.25
