PDEW2015 12 15 00 26 28.00 25.2340 122.3140 217 0.0 4.11 RYUKYU SUB
event name:     201512150026
time shift:     0.0
half duration:  0.0
latitude:       25.2340
longitude:      122.3140
depth:          217
Mrr:        -0.64
Mtt:        0.08
Mpp:        0.57
Mrt:        -0.26
Mrp:        -0.72
Mtp:        0.21
