PDEW2015 04 13 01 30 28.00 25.2860 122.3990 228 0.0 4.38 RYUKYU SUB
event name:     201504130130
time shift:     0.0
half duration:  0.0
latitude:       25.2860
longitude:      122.3990
depth:          228
Mrr:        0.34
Mtt:        0.00
Mpp:        -0.34
Mrt:        0.00
Mrp:        0.94
Mtp:        0.00
